NÃO OTIMIZADO!
  
       XFOIL         Version 6.99
  
 Calculated polar for: NACA 4415                                       
  
 1 1 Reynolds number fixed          Mach number fixed         
  
 xtrf =   1.000 (top)        1.000 (bottom)  
 Mach =   0.000     Re =     0.500 e 6     Ncrit =   9.000
  
   alpha    CL        CD       CDp       CM     Top_Xtr  Bot_Xtr
  ------ -------- --------- --------- -------- -------- --------
   2.000   0.7161   0.00855   0.00330  -0.1053   0.5433   1.0000
   2.200   0.7342   0.00866   0.00334  -0.1045   0.5373   1.0000
   2.400   0.7527   0.00877   0.00340  -0.1037   0.5318   1.0000
   2.600   0.7717   0.00884   0.00346  -0.1031   0.5261   1.0000
   2.800   0.7904   0.00895   0.00351  -0.1023   0.5205   1.0000
   3.000   0.8092   0.00909   0.00359  -0.1016   0.5153   1.0000
   3.200   0.8290   0.00916   0.00366  -0.1011   0.5102   1.0000
   3.400   0.8485   0.00927   0.00374  -0.1005   0.5048   1.0000
   3.600   0.8679   0.00942   0.00383  -0.0999   0.4998   1.0000
   3.800   0.8880   0.00952   0.00392  -0.0995   0.4949   1.0000
   4.000   0.9082   0.00961   0.00401  -0.0991   0.4898   1.0000
   4.200   0.9280   0.00975   0.00411  -0.0986   0.4847   1.0000
   4.400   0.9479   0.00991   0.00423  -0.0981   0.4798   1.0000
   4.600   0.9684   0.00999   0.00433  -0.0978   0.4749   1.0000
   4.800   0.9885   0.01011   0.00444  -0.0973   0.4697   1.0000
   5.000   1.0082   0.01028   0.00456  -0.0968   0.4646   1.0000
   5.200   1.0285   0.01040   0.00469  -0.0965   0.4597   1.0000
   5.400   1.0487   0.01051   0.00480  -0.0961   0.4543   1.0000
   5.600   1.0682   0.01067   0.00493  -0.0956   0.4489   1.0000
   5.800   1.0878   0.01083   0.00508  -0.0951   0.4436   1.0000
   6.000   1.1078   0.01093   0.00521  -0.0947   0.4379   1.0000
   6.200   1.1270   0.01109   0.00534  -0.0941   0.4320   1.0000
   6.400   1.1460   0.01127   0.00550  -0.0935   0.4262   1.0000
   6.600   1.1656   0.01138   0.00564  -0.0931   0.4199   1.0000
   6.800   1.1839   0.01156   0.00579  -0.0923   0.4133   1.0000
   7.000   1.2028   0.01171   0.00595  -0.0918   0.4068   1.0000
   7.200   1.2213   0.01186   0.00611  -0.0911   0.3994   1.0000
   7.400   1.2387   0.01207   0.00629  -0.0902   0.3925   1.0000
   7.600   1.2573   0.01221   0.00645  -0.0896   0.3847   1.0000
   8.000   1.2914   0.01261   0.00684  -0.0878   0.3689   1.0000
   8.400   1.3221   0.01307   0.00727  -0.0854   0.3518   1.0000
   8.600   1.3356   0.01338   0.00754  -0.0839   0.3430   1.0000
   8.800   1.3512   0.01363   0.00780  -0.0828   0.3333   1.0000
   9.000   1.3650   0.01396   0.00810  -0.0814   0.3239   1.0000
   9.200   1.3785   0.01431   0.00842  -0.0801   0.3134   1.0000
   9.400   1.3926   0.01466   0.00876  -0.0788   0.3029   1.0000
   9.600   1.4049   0.01509   0.00915  -0.0773   0.2923   1.0000
   9.800   1.4169   0.01555   0.00958  -0.0758   0.2807   1.0000
  10.000   1.4294   0.01600   0.01001  -0.0744   0.2689   1.0000
  10.200   1.4405   0.01653   0.01050  -0.0729   0.2571   1.0000
  10.400   1.4505   0.01713   0.01105  -0.0712   0.2451   1.0000
  10.600   1.4594   0.01780   0.01167  -0.0695   0.2324   1.0000
  10.800   1.4692   0.01845   0.01228  -0.0679   0.2197   1.0000
  11.000   1.4780   0.01917   0.01296  -0.0663   0.2073   1.0000
  11.200   1.4857   0.01997   0.01372  -0.0645   0.1951   1.0000
  11.400   1.4924   0.02086   0.01456  -0.0628   0.1831   1.0000
  11.600   1.4982   0.02183   0.01548  -0.0610   0.1715   1.0000
  11.800   1.5038   0.02283   0.01644  -0.0593   0.1601   1.0000
  12.000   1.5097   0.02386   0.01744  -0.0577   0.1494   1.0000
  12.200   1.5145   0.02499   0.01854  -0.0561   0.1396   1.0000
  12.400   1.5179   0.02625   0.01977  -0.0545   0.1305   1.0000
  12.600   1.5217   0.02752   0.02102  -0.0530   0.1218   1.0000
  12.800   1.5257   0.02882   0.02231  -0.0516   0.1141   1.0000
  13.000   1.5275   0.03034   0.02381  -0.0502   0.1071   1.0000
  13.200   1.5308   0.03177   0.02524  -0.0489   0.1006   1.0000
  13.400   1.5325   0.03338   0.02685  -0.0477   0.0950   1.0000
  13.600   1.5346   0.03500   0.02849  -0.0466   0.0898   1.0000
  13.800   1.5355   0.03679   0.03030  -0.0455   0.0852   1.0000
  14.000   1.5374   0.03853   0.03206  -0.0446   0.0810   1.0000
  14.200   1.5355   0.04069   0.03422  -0.0437   0.0772   1.0000
  14.400   1.5385   0.04243   0.03602  -0.0430   0.0738   1.0000
  14.600   1.5377   0.04460   0.03821  -0.0423   0.0707   1.0000
  14.800   1.5359   0.04693   0.04057  -0.0417   0.0680   1.0000
  15.000   1.5375   0.04893   0.04263  -0.0413   0.0655   1.0000
  15.200   1.5358   0.05133   0.04507  -0.0408   0.0631   1.0000
  15.400   1.5308   0.05415   0.04791  -0.0405   0.0611   1.0000
  15.600   1.5320   0.05634   0.05018  -0.0402   0.0591   1.0000
  15.800   1.5308   0.05881   0.05270  -0.0400   0.0572   1.0000
  16.000   1.5272   0.06159   0.05552  -0.0399   0.0556   1.0000
  16.200   1.5202   0.06483   0.05879  -0.0399   0.0540   1.0000
  16.400   1.5204   0.06723   0.06127  -0.0399   0.0526   1.0000
  16.600   1.5189   0.06988   0.06399  -0.0399   0.0511   1.0000
  16.800   1.5156   0.07278   0.06694  -0.0401   0.0498   1.0000
  17.000   1.5100   0.07596   0.07016  -0.0403   0.0487   1.0000
